/*--------------------------------*- C++ -*----------------------------------*\
| =========                 |                                                 |
| \\      /  F ield         | OpenFOAM: The Open Source CFD Toolbox           |
|  \\    /   O peration     | Version:  v2206                                 |
|   \\  /    A nd           | Website:  www.openfoam.com                      |
|    \\/     M anipulation  |                                                 |
\*---------------------------------------------------------------------------*/
FoamFile
{
    version     2.0;
    format      ascii;
    class       volScalarField;
    object      p;
}
// * * * * * * * * * * * * * * * * * * * * * * * * * * * * * * * * * * * * * //

dimensions      [0 2 -2 0 0 0 0];

internalField   uniform 0;

boundaryField
{
    inlet
    {
        type            zeroGradient;
    }
   
    brachiocephalic
    {
    type        windkesselPressure;
    Rp          4.749e05; //increase to decrease mean flow to branch
    C           7.8306e-07; // split-the-difference again
    Rc          4.7733e+03; // split-the-difference again
    P_downstream    0.4;      //keep constant; venous pressure
    initialPC   10.0;     //keep constant; step 0 pressure, set to 80mmHg    
    value       uniform     10; //step 0 value, matches initialPC
    }

    lcc
    {
    type        windkesselPressure;
    Rp          1.735e06; //increase to decrease mean flow to branch
    C           2.1935e-07; // split-the-difference again
    Rc          1.7866e+04; // split-the-difference again
    P_downstream    0.4;      //keep constant; venous pressure
    initialPC   10.0;     //keep constant; step 0 pressure, set to 80mmHg    
    value       uniform     10; //step 0 value, matches initialPC
    }

    left_subclavian
    {
    type        windkesselPressure;
    Rp          1.432e06; //increase to decrease mean flow to branch
    C           2.6579e-07; // split-the-difference again
    Rc          1.4744e+04; // split-the-difference again
    P_downstream    0.4;      //keep constant; venous pressure
    initialPC   10.0;     //keep constant; step 0 pressure, set to 80mmHg    
    value       uniform     10; //step 0 value, matches initialPC
    }

    celiac_trunk
    {
    type        windkesselPressure;
    Rp          1.504e06; //increase to decrease mean flow to branch
    C           2.1446e-07; // split-the-difference again
    Rc          4.0375e+04; // split-the-difference again
    P_downstream    0.4;      //keep constant; venous pressure
    initialPC   10.0;     //keep constant; step 0 pressure, set to 80mmHg    
    value       uniform     10; //step 0 value, matches initialPC
    }

    sma
    {
    type        windkesselPressure;
    Rp          9.024e05; //increase to decrease mean flow to branch
    C           3.5742e-07; // split-the-difference again
    Rc          2.4480e+04; // split-the-difference again
    P_downstream    0.4;      //keep constant; venous pressure
    initialPC   10.0;     //keep constant; step 0 pressure, set to 80mmHg    
    value       uniform     10; //step 0 value, matches initialPC
    }

    renal01
    {
    type        windkesselPressure;
    Rp          9.024e05; //increase to decrease mean flow to branch
    C           3.5326e-07; // split-the-difference again
    Rc          2.4768e+04; // split-the-difference again
    P_downstream    0.4;      //keep constant; venous pressure
    initialPC   10.0;     //keep constant; step 0 pressure, set to 80mmHg    
    value       uniform     10; //step 0 value, matches initialPC
    }
    renal02
    {
    type        windkesselPressure;
    Rp          9.024e05; //increase to decrease mean flow to branch
    C           3.5326e-07; // split-the-difference again
    Rc          2.4768e+04; // split-the-difference again
    P_downstream    0.4;      //keep constant; venous pressure
    initialPC   10.0;     //keep constant; step 0 pressure, set to 80mmHg    
    value       uniform     10; //step 0 value, matches initialPC
    }

    iliac_out
    {
    type        windkesselPressure;
    Rp          2.710e05; //increase to decrease mean flow to branch
    C           1.1623e-06; // split-the-difference again
    Rc          7.2660e+03; // split-the-difference again
    P_downstream    0.4;      //keep constant; venous pressure
    initialPC   10.0;     //keep constant; step 0 pressure, set to 80mmHg    
    value       uniform     10; //step 0 value, matches initialPC
    }

    pipe
    {
        type            zeroGradient;
    }

//    reboa
//    {
//        type            zeroGradient;
//    }
//    reboa2
//    {
//        type            zeroGradient;
//    }

    defaultFaces
    {
        type            zeroGradient;
    }

    top
    {
        type            zeroGradient;
    }
    left
    {
        type            zeroGradient;
    }
    right
    {
        type            zeroGradient;
    }
    bottom
    {
        type            zeroGradient;
    }
    front
    {
        type            zeroGradient;
    }
    back
    {    
        type            zeroGradient;
    }


}

// ************************************************************************* //
